Version 4
SHEET 1 2940 740
WIRE 256 -144 32 -144
WIRE -224 -128 -224 -144
WIRE -96 -128 -224 -128
WIRE 32 -112 32 -144
WIRE -224 -96 -224 -128
WIRE 32 -96 32 -112
WIRE -224 -48 -336 -48
WIRE 160 -48 32 -48
WIRE -96 -16 -96 -128
WIRE -96 -16 -176 -16
WIRE -16 -16 -96 -16
WIRE -224 16 -224 0
WIRE -96 16 -224 16
WIRE 32 32 32 0
WIRE -224 48 -224 16
WIRE 32 48 32 32
WIRE 256 48 256 -144
WIRE -336 96 -336 -48
WIRE -224 96 -336 96
WIRE 160 96 160 -48
WIRE 160 96 32 96
WIRE -96 128 -96 16
WIRE -96 128 -176 128
WIRE -16 128 -96 128
WIRE -336 224 -336 96
WIRE -224 224 -224 144
WIRE 32 224 32 144
WIRE 160 224 160 96
WIRE 256 224 256 128
FLAG -224 224 0
FLAG -336 224 0
FLAG 32 224 0
FLAG 160 224 0
FLAG 256 224 0
FLAG -224 -224 0
FLAG -224 -128 VD3
FLAG -224 16 VD1
FLAG 32 32 VD2
FLAG 32 -112 VD4
SYMBOL nmos4 -176 48 M0
SYMATTR InstName M1
SYMBOL nmos4 -16 48 R0
SYMATTR InstName M2
SYMBOL voltage 256 32 R0
SYMATTR InstName Vout
SYMATTR Value 0
SYMBOL current -224 -224 R0
WINDOW 123 0 0 Left 0
WINDOW 39 0 0 Left 0
SYMATTR InstName IREF
SYMATTR Value 0
SYMBOL nmos4 -176 -96 M0
SYMATTR InstName M3
SYMBOL nmos4 -16 -96 R0
SYMATTR InstName M4
