Version 4
SHEET 1 2940 740
WIRE 384 112 64 112
WIRE 64 224 64 112
WIRE 384 240 384 112
WIRE 368 288 224 288
WIRE 576 288 464 288
WIRE 224 352 224 288
WIRE 576 368 576 288
WIRE 64 496 64 304
WIRE 224 496 224 432
WIRE 416 496 416 288
WIRE 576 496 576 432
FLAG 64 496 0
FLAG 224 496 0
FLAG 416 496 0
FLAG 64 112 Vphi
FLAG 224 288 Vin
FLAG 576 496 0
FLAG 576 288 Vc
SYMBOL nmos4 464 240 R90
SYMATTR InstName M1
SYMBOL voltage 64 208 R0
WINDOW 123 0 0 Left 0
WINDOW 39 0 0 Left 0
SYMATTR InstName Vphi
SYMATTR Value 0
SYMBOL voltage 224 336 R0
SYMATTR InstName Vin
SYMATTR Value 0
SYMBOL cap 560 368 R0
SYMATTR InstName C1
SYMATTR Value 0
