Version 4
SHEET 1 2940 740
WIRE 48 -416 -48 -416
WIRE 128 -416 48 -416
WIRE 128 -320 128 -416
WIRE 48 -304 48 -416
WIRE 48 -304 -48 -304
WIRE 128 -144 -48 -144
WIRE -48 -96 -48 -144
WIRE 64 -48 -48 -48
WIRE -96 -16 -272 -16
WIRE -272 16 -272 -16
WIRE 128 16 128 -144
WIRE -48 64 -48 0
WIRE 64 64 64 -48
WIRE 64 64 -48 64
WIRE -48 112 -48 64
WIRE 0 0 0 0
FLAG 128 -240 0
FLAG -48 112 0
FLAG -272 96 0
FLAG -48 -416 VDD
FLAG -272 -16 Vin
FLAG -48 -144 Vout
FLAG 128 96 0
SYMBOL nmos4 -96 -96 R0
SYMATTR InstName M1
SYMBOL voltage 128 -336 R0
SYMATTR InstName VDD
SYMATTR Value 0
SYMBOL voltage -272 0 R0
WINDOW 123 0 0 Left 0
WINDOW 39 0 0 Left 0
SYMATTR InstName Vin
SYMATTR Value 0
SYMBOL voltage 128 0 R0
SYMATTR InstName Vout
SYMATTR Value 0
SYMBOL pmos4 -96 -256 M180
SYMATTR InstName M2
