Version 4
SHEET 1 2940 740
WIRE 256 -144 32 -144
WIRE -224 -128 -224 -144
WIRE -96 -128 -224 -128
WIRE 32 -128 32 -144
WIRE -224 -80 -336 -80
WIRE 160 -80 32 -80
WIRE -96 -48 -96 -128
WIRE -96 -48 -176 -48
WIRE -16 -48 -96 -48
WIRE 32 0 32 -32
WIRE 32 0 -96 0
WIRE -224 16 -224 -32
WIRE -224 48 -224 16
WIRE 32 48 32 0
WIRE 256 48 256 -144
WIRE -336 96 -336 -80
WIRE -224 96 -336 96
WIRE 160 96 160 -80
WIRE 160 96 32 96
WIRE -96 128 -96 0
WIRE -96 128 -176 128
WIRE -16 128 -96 128
WIRE -336 224 -336 96
WIRE -224 224 -224 144
WIRE 32 224 32 144
WIRE 160 224 160 96
WIRE 256 224 256 128
FLAG -224 224 0
FLAG -336 224 0
FLAG 32 224 0
FLAG 160 224 0
FLAG 256 224 0
FLAG -224 -224 0
FLAG 32 0 VD2
FLAG -224 16 VD1
FLAG 32 -144 VD4
FLAG -224 -128 VD3
SYMBOL nmos4 -176 48 M0
SYMATTR InstName M1
SYMBOL nmos4 -16 48 R0
SYMATTR InstName M2
SYMBOL voltage 256 32 R0
SYMATTR InstName Vout
SYMATTR Value 0
SYMBOL current -224 -224 R0
SYMATTR InstName IREF
SYMATTR Value 0
SYMBOL nmos4 -16 -128 R0
SYMATTR InstName M4
SYMBOL nmos4 -176 -128 M0
SYMATTR InstName M3
