Version 4
SHEET 1 2940 740
WIRE 112 -64 -144 -64
WIRE -144 -48 -144 -64
WIRE -16 0 -144 0
WIRE -192 32 -432 32
WIRE -144 64 -144 48
WIRE -144 80 -144 64
WIRE 112 80 112 -64
WIRE -16 128 -16 0
WIRE -16 128 -144 128
WIRE -192 160 -272 160
WIRE -432 192 -432 32
WIRE -272 192 -272 160
WIRE -432 304 -432 272
WIRE -272 304 -272 272
WIRE -144 304 -144 176
WIRE -16 304 -16 128
WIRE 112 304 112 160
FLAG -144 304 0
FLAG -16 304 0
FLAG 112 304 0
FLAG 112 -64 Vout
FLAG -272 304 0
FLAG -432 304 0
FLAG -144 64 Vmid
SYMBOL nmos4 -192 80 R0
SYMATTR InstName M1
SYMBOL voltage 112 64 R0
SYMATTR InstName Vout
SYMATTR Value 0
SYMBOL voltage -272 176 R0
SYMATTR InstName VG1
SYMATTR Value 0
SYMBOL nmos4 -192 -48 R0
SYMATTR InstName M2
SYMBOL voltage -432 176 R0
SYMATTR InstName VG2
SYMATTR Value 0
