Version 4
SHEET 1 2940 740
WIRE 112 -64 -144 -64
WIRE -144 32 -144 -64
WIRE -144 32 -272 32
WIRE -144 80 -144 32
WIRE 112 80 112 -64
WIRE -16 128 -144 128
WIRE -272 160 -272 32
WIRE -192 160 -272 160
WIRE -144 304 -144 176
WIRE -16 304 -16 128
WIRE 112 304 112 160
FLAG -144 304 0
FLAG -16 304 0
FLAG 112 304 0
FLAG 112 -64 Vout
SYMBOL nmos4 -192 80 R0
SYMATTR InstName M1
SYMBOL voltage 112 64 R0
SYMATTR InstName Vout
SYMATTR Value 0
